[Format]      =  1
[Precision]   =  1e-008
[Frequency]   =  50
[MinAngle]    =  30
[DoSmartMesh] =  1
[Depth]       =  1
[LengthUnits] =  millimeters
[ProblemType] =  axisymmetric
[Coordinates] =  cartesian
[Comment]     =  "Add comments here."
[PointProps]   = 0
[BdryProps]   = 1
  <BeginBdry>
    <BdryName> = "Tierra"
    <BdryType> = 0
    <vsr> = 0
    <vsi> = 0
    <qsr> = 0
    <qsi> = 0
    <c0r>  = 0
    <c0i>  = 0
    <c1r>  = 0
    <c1i>  = 0
  <EndBdry>
[BlockProps]  = 3
  <BeginBlock>
    <BlockName> = "Aceite"
    <ox> = 40.800000000000011
    <oy> = 15.799999999999997
    <ex> = 3.1000000000000001
    <ey> = 3.1000000000000001
    <ltx> = 0
    <lty> = 0
  <EndBlock>
  <BeginBlock>
    <BlockName> = "Acero"
    <ox> = 2.9999999999999998e-018
    <oy> = 2.9999999999999998e-018
    <ex> = 0.0001
    <ey> = 0.0001
    <ltx> = 0
    <lty> = 0
  <EndBlock>
  <BeginBlock>
    <BlockName> = "Aluminio"
    <ox> = 38000000000000
    <oy> = 38000000000000
    <ex> = 0.0001
    <ey> = 0.0001
    <ltx> = 0
    <lty> = 0
  <EndBlock>
[ConductorProps]  = 1
  <BeginConductor>
    <ConductorName> = "Bola"
    <vcr> = 42
    <vci> = 0
    <qcr> = 0
    <qci> = 0
    <ConductorType> = 1
  <EndConductor>
[NumPoints] = 44
2247.5719669277828	1124.8584701257309	0	1	0
2247.5779669277831	1124.8584701257309	0	1	0
2247.5779669277831	1149.8584701257309	0	1	0
2247.5719669277828	1149.8584701257309	0	1	0
2241.199966927783	1149.8584701257309	0	1	0
2253.949966927783	1149.8584701257309	0	1	0
2241.199966927783	1169.8584701257309	0	1	0
2253.949966927783	1169.8584701257309	0	1	0
2246.4679597951558	1062.205320700278	0	1	0
2246.4679597951558	1050.205320700278	0	1	0
2248.6819740604101	1062.205320700278	0	1	0
2248.6819740604101	1050.205320700278	0	1	0
2242.585674118618	1035.716433305942	0	1	0
2252.564259736947	1035.716433305942	0	1	0
2242.585674118618	1000.716433305942	0	1	0
2252.564259736947	1000.716433305942	0	1	0
2238.7033884420812	986.22754591160617	0	1	0
2256.4465454134852	986.22754591160617	0	1	0
2267.574966927783	986.22754591160617	0	1	0
2227.574966927783	986.22754591160617	0	1	0
2267.574966927783	1181.2275459116061	0	1	0
2227.574966927783	1181.2275459116061	0	1	0
2222.574966927783	1181.2275459116061	0	1	0
2222.574966927783	1030.413765162117	0	1	0
2272.574966927783	1181.2275459116061	0	1	0
2272.574966927783	1030.413765162117	0	1	0
2212.574966927783	1191.2275459116061	0	1	0
2230.074966927783	1191.2275459116061	0	1	0
2240.074966927783	1184.7540855257751	0	1	0
2240.074966927783	1186.2275459116061	0	1	0
2255.0749669277839	1184.7540855257751	0	1	0
2255.0749669277839	1186.2275459116081	0	1	0
2265.0749669277839	1186.2275459116061	0	1	0
2265.0749669277839	1191.2275459116061	0	1	0
2282.574966927783	1191.2275459116061	0	1	0
2246.2749669277832	1169.8584701257309	0	1	0
2246.2749669277832	1177.367611400728	0	1	0
2248.8749669277822	1169.8584701257309	0	1	0
2248.8749669277822	1177.367611400728	0	1	0
2282.574966927783	1030.413765162117	0	1	0
2212.574966927783	1030.413765162117	0	1	0
2230.074966927783	1186.2275459116061	0	1	0
2253.949966927783	1068.4834701257309	0	1	0
2241.199966927783	1068.4834701257309	0	1	0
[NumSegments] = 37
3	4	-1	1	0	1	0
2	5	-1	1	0	1	0
4	6	-1	1	0	1	0
5	7	-1	1	0	1	0
7	37	-1	1	0	1	0
8	9	-1	0	0	1	0
10	11	-1	0	0	1	0
9	12	-1	0	0	1	0
11	13	-1	0	0	1	0
12	14	-1	0	0	1	0
13	15	-1	0	0	1	0
14	16	-1	0	0	1	0
15	17	-1	0	0	1	0
17	18	-1	0	0	1	0
16	19	-1	0	0	1	0
18	20	-1	0	0	1	0
19	21	-1	0	0	1	0
21	22	-1	0	0	1	0
22	23	-1	0	0	1	0
20	24	-1	0	0	1	0
24	25	-1	0	0	1	0
26	27	-1	0	0	1	0
28	29	-1	0	0	1	0
30	31	-1	0	0	1	0
32	33	-1	0	0	1	0
33	34	-1	0	0	1	0
35	6	-1	1	0	1	0
35	36	-1	1	0	1	0
37	38	-1	1	0	1	0
39	34	-1	0	0	1	0
40	23	-1	0	0	1	0
25	39	-1	0	0	1	0
26	40	-1	0	0	1	0
27	41	-1	0	0	1	0
3	0	-1	1	0	0	0
0	1	-1	1	0	0	0
1	2	-1	1	0	0	0
[NumArcSegments] = 9
42	43	180	5	0	0	1	1	5
43	8	79.999999999996234	5	0	0	1	1	5
8	10	20.000000000007546	5	0	0	1	1	5
10	42	79.999999999996234	5	0	0	1	1	5
28	36	80.018317020091587	5	0	0	1	0	5
36	38	19.963365959805362	5	0	0	1	0	5
38	30	80.018317020102401	5	0	0	1	0	5
41	29	180	5	0	0	1	0	5
31	32	179.99999999997908	5	0	0	1	0	5
[NumHoles] = 1
2292.1999999999998	1143	0
[NumBlockLabels] = 3
2247.5	1106.5	1	-1	0	0
2245	1158.7	3	-1	0	0
2247.6999999999998	1067.2	2	-1	0	0
